\name{read.dis}
\alias{read.dis}
\title{Read a MODFLOW discretization file}
\usage{
read.dis(file)
}
\arguments{
  \item{file}{Filename, typically *.dis}
}
\value{
Object of class dis
}
\description{
Read a MODFLOW discretization file
}

