% Generated by roxygen2: do not edit by hand
% Please edit documentation in R/utils.R
\name{rmf_create_parameter}
\alias{rmf_create_parameter}
\title{Create a MODFLOW parameter}
\usage{
rmf_create_parameter(...)
}
\description{
Create a MODFLOW parameter
}
