% Generated by roxygen2 (4.0.2): do not edit by hand
\name{write_mlt}
\alias{write_mlt}
\title{Write a MODFLOW file}
\usage{
write_mlt(mlt, file, IPRN = -1)
}
\description{
Write a MODFLOW file
}

