\name{write.mlt}
\alias{write.mlt}
\title{Write a MODFLOW file}
\usage{
write.mlt(mlt, file, info = "No further information provided", IPRN = -1)
}
\description{
Write a MODFLOW file
}

