% Generated by roxygen2 (4.0.2): do not edit by hand
\name{write.pval}
\alias{write.pval}
\title{Write a MODFLOW file}
\usage{
write.pval(pval, file, info = "No further information provided")
}
\description{
Write a MODFLOW file
}

