% Generated by roxygen2 (4.0.2): do not edit by hand
\name{write.huf}
\alias{write.huf}
\title{Write a MODFLOW file}
\usage{
write.huf(huf, file, info = "No further information provided", IPRN = -1)
}
\description{
Write a MODFLOW file
}

