% Generated by roxygen2 (4.0.2): do not edit by hand
\name{write_dis}
\alias{write_dis}
\title{Write a MODFLOW file}
\usage{
write_dis(dis, file, IPRN = -1)
}
\description{
Write a MODFLOW file
}

