% Generated by roxygen2 (4.0.2): do not edit by hand
\name{write_huf}
\alias{write_huf}
\title{Write a MODFLOW file}
\usage{
write_huf(huf, file, IPRN = -1)
}
\description{
Write a MODFLOW file
}

