% Generated by roxygen2 (4.0.2): do not edit by hand
\name{write_hob}
\alias{write_hob}
\title{Write a MODFLOW file}
\usage{
write_hob(hob, file)
}
\description{
Write a MODFLOW file
}

