% Generated by roxygen2 (4.0.2): do not edit by hand
\name{write.dis}
\alias{write.dis}
\title{Write a MODFLOW file}
\usage{
write.dis(dis, file, info = "No further information provided", IPRN = -1)
}
\description{
Write a MODFLOW file
}

