% Generated by roxygen2 (4.0.2): do not edit by hand
\name{write_pval}
\alias{write_pval}
\title{Write a MODFLOW file}
\usage{
write_pval(pval, file)
}
\description{
Write a MODFLOW file
}

