% Generated by roxygen2 (4.0.2): do not edit by hand
\name{write.hob}
\alias{write.hob}
\title{Write a MODFLOW file}
\usage{
write.hob(hob, file, info = "No further information provided")
}
\description{
Write a MODFLOW file
}

