% Generated by roxygen2 (4.0.2): do not edit by hand
\name{write_pvl}
\alias{write_pvl}
\title{Write a MODFLOW file}
\usage{
write_pvl(pvl, file)
}
\description{
Write a MODFLOW file
}

