Package: RMODFLOW
Type: Package
Title: Pre- and post-processing of MODFLOW files
Version: 0.3.0.9999
Date: 2015-12-03
Author: Bart Rogiers <brogiers@sckcen.be>
Maintainer: Bart Rogiers <brogiers@sckcen.be>
Description: The RMODFLOW package provides a set of tools for groundwater flow
    modelling with MODFLOW.
License: GPL (>= 2)
Imports:
    ggplot2,
    akima,
    rgl,
    readr,
    hydroPSO,
    hydroGOF,
    DEoptim,
    directlabels,
    grid,
    quadprog
URL: https://github.com/rogiersbart/RMODFLOW
