Package: RMODFLOW
Type: Package
Title: Pre- and post-processing of MODFLOW files
Version: 0.2.0
Date: 2015-04-13
Author: Bart Rogiers <brogiers@sckcen.be>
Maintainer: Bart Rogiers <brogiers@sckcen.be>
Description: The RMODFLOW package provides a set of tools for groundwater flow
    modelling with MODFLOW.
License: GPL (>= 2)
Imports:
    ggplot2,
    akima,
    rgl,
    RTOOLZ,
    readr,
    hydroPSO,
    DEoptim
Depends:
    directlabels
URL: https://github.com/rogiersbart/RMODFLOW
