Package: RMODFLOW
Type: Package
Title: Pre- and post-processing of MODFLOW files
Version: 0.1.0
Date: 2014-12-18
Author: Bart Rogiers <brogiers@sckcen.be>
Maintainer: Bart Rogiers <brogiers@sckcen.be>
Description: The RMODFLOW package provides a set of tools for groundwater flow
    modelling with MODFLOW.
License: GPL (>= 2)
Imports:
    ggplot2,
    akima,
    rgl,
    RTOOLZ
Depends:
    directlabels
URL: https://github.com/rogiersbart/RMODFLOW
