Package: RMODFLOW
Type: Package
Title: Pre- and post-processing of MODFLOW files
Version: 0.4.0
Date: 2016-06-27
Author: Bart Rogiers <brogiers@sckcen.be>
Maintainer: Bart Rogiers <brogiers@sckcen.be>
Description: The RMODFLOW package provides a set of tools for groundwater flow
    modelling with MODFLOW.
License: GPL (>= 2)
Imports: 
    ggplot2,
    akima,
    rgl,
    readr,
    hydroPSO,
    hydroGOF,
    DEoptim,
    directlabels,
    grid,
    quadprog,
    sp,
    rgdal,
    animation,
    tools,
    lubridate
URL: https://github.com/rogiersbart/RMODFLOW
RoxygenNote: 5.0.1
Suggests: knitr,
    rmarkdown
VignetteBuilder: knitr
