Package: RMODFLOW
Type: Package
Title: Pre- and post-processing of MODFLOW files in R
Version: 0.4.0.9000
Date: 2016-06-27
Authors@R: person("Bart", "Rogiers", role = c("aut", "cre"), email = "brogiers@sckcen.be")
Description: The RMODFLOW package provides a set of tools for groundwater flow
    modelling with MODFLOW.
License: GPL (>= 2)
Imports: 
    ggplot2,
    akima,
    rgl,
    readr,
    hydroPSO,
    hydroGOF,
    DEoptim,
    directlabels,
    grid,
    quadprog,
    sp,
    rgdal,
    animation,
    tools,
    xml2,
    rvest,
    sf,
    tibble,
    dplyr,
    tidyr,
    abind,
    ggquiver,
    magrittr,
    processx
URL: https://github.com/rogiersbart/RMODFLOW
BugReports: https://github.com/rogiersbart/RMODFLOW/issues
Encoding: UTF-8
RoxygenNote: 7.1.0
Suggests: 
    knitr,
    rmarkdown,
    mapview
VignetteBuilder: knitr
ByteCompile: true
