Package: RMODFLOW
Type: Package
Title: Pre- and post-processing of MODFLOW files in R
Version: 0.4.0.9000
Date: 2016-06-27
Authors@R: person("Bart", "Rogiers", role = c("aut", "cre"), email = "brogiers@sckcen.be")
Description: The RMODFLOW package provides a set of tools for groundwater flow
    modelling with MODFLOW.
License: GPL (>= 2)
Imports: 
    ggplot2,
    akima,
    rgl,
    readr,
    hydroGOF,
    directlabels,
    sp,
    rgdal,
    animation,
    tools,
    lubridate,
    sf,
    tibble,
    dplyr,
    stringr,
    purrr,
    abind,
    ggquiver,
    magrittr,
    fs,
    processx,
    tidyr,
    spectralscale,
    rui
Remotes:
    rogiersbart/spectralscale
    rogiersbart/rui
URL: https://github.com/rogiersbart/RMODFLOW
BugReports: https://github.com/rogiersbart/RMODFLOW/issues
Roxygen: list(markdown = TRUE)
RoxygenNote: 7.1.1
Suggests: 
    knitr,
    rmarkdown,
    mapview
VignetteBuilder: knitr
ByteCompile: true
Depends: 
    R (>= 2.10)
