Package: RMODFLOW
Type: Package
Title: Pre- and post-processing of MODFLOW files
Version: 0.5.0
Date: 2021-10-12
Authors@R: c(
    person(
    given = "Bart",
    family = "Rogiers",
    email = "bart.rogiers@sckcen.be",
    role = c("cre", "aut"),
    comment = c(ORCID = "0000-0002-8836-0988")),
    person("Cas", "Neyens", role = "aut", email = "cas.neyens@vub.be"))
Description: The RMODFLOW package provides a set of tools for groundwater flow
    modelling with the MODFLOW-2005 family of codes.
License: GPL (>= 2)
Imports: 
    ggplot2,
    akima,
    rgl,
    readr (>= 2.0.0),
    hydroGOF,
    directlabels,
    fs,
    sp,
    rgdal,
    animation,
    tools,
    xml2,
    rvest,
    sf,
    tibble,
    dplyr,
    stringr,
    purrr,
    abind,
    ggquiver,
    magrittr,
    stars,
    processx,
    tidyr,
    spectralscale,
    rui,
    lubridate
Remotes:
    rogiersbart/spectralscale,
    rogiersbart/rui
URL: https://rogiersbart.github.io/RMODFLOW/
BugReports: https://github.com/rogiersbart/RMODFLOW/issues
Encoding: UTF-8
Roxygen: list(markdown = TRUE)
RoxygenNote: 7.1.1
Suggests: 
    knitr,
    rmarkdown,
    mapview
VignetteBuilder: knitr
ByteCompile: true
Depends: 
    R (>= 2.10)
