Package: RMODFLOW
Type: Package
Title: Pre- and post-processing of native MODFLOW files
Version: 1.0
Date: 2014-03-01
Author: Bart Rogiers <brogiers@sckcen.be>
Maintainer: Bart Rogiers <brogiers@sckcen.be>
Description: More about what it does (maybe more than one line)
License: What license is it under?
