Package: RMODFLOW
Type: Package
Title: Pre- and post-processing of MODFLOW files in R
Version: 0.4.0
Date: 2016-06-27
Authors@R: person("Bart", "Rogiers", role = c("aut", "cre"), email = "brogiers@sckcen.be")
Author: Bart Rogiers <brogiers@sckcen.be>
Maintainer: Bart Rogiers <brogiers@sckcen.be>
Description: The RMODFLOW package provides a set of tools for groundwater flow
    modelling with MODFLOW.
License: GPL (>= 2)
Imports: 
    ggplot2,
    akima,
    rgl,
    readr,
    hydroPSO,
    hydroGOF,
    DEoptim,
    directlabels,
    grid,
    quadprog,
    sp,
    rgdal,
    animation,
    tools,
    lubridate,
    xml2,
    rvest
URL: https://github.com/rogiersbart/RMODFLOW
BugReports: https://github.com/rogiersbart/RMODFLOW/issues
RoxygenNote: 6.0.1
Suggests: knitr,
    rmarkdown
VignetteBuilder: knitr
ByteCompile: true