# MODFLOW Recharge Package created by RMODFLOW, version 0.4.0.9000 
# 
PARAMETER 2
         1         0
RCH1 RCH 3e-08 1
NONE RCHZONES 1
RCH2 RCH 3e-08 1
NONE RCHZONES 2
         2
RCH1 -1
RCH2 -1
